10
Coordinates from ORCA-job C4H6_3d
  C   -0.87772295344714     -0.74609483669727     -1.52803727513691
  C   -1.69378146184641     -0.44925782597313     -0.33992903498988
  C   0.36597880536004     -0.30333626056470     -1.77028671637804
  C   -1.23605822418401     -0.13781598534809      0.88272512543328
  H   0.90312712319119     -0.59240171853925     -2.67798105718949
  H   0.88431863480361      0.37012944626251     -1.08031703443180
  H   -1.36096470040407     -1.37705657458853     -2.28471340413838
  H   -2.77910393940929     -0.51210466107708     -0.48766295045942
  H   -0.16512624025868     -0.10704227185576      1.10838251943980
  H   -1.92202201380521      0.08552447438130      1.70407366485085
